/*--------------------------------*- C++ -*----------------------------------*\
| =========                 |                                                 |
| \\      /  F ield         | OpenFOAM: The Open Source CFD Toolbox           |
|  \\    /   O peration     | Version:  4.0                                   |
|   \\  /    A nd           | Web:      www.OpenFOAM.org                      |
|    \\/     M anipulation  |                                                 |
\*---------------------------------------------------------------------------*/
FoamFile
{
    version     2.0;
    format      ascii;
    class       dictionary;
    object      fvOptions;
}
// * * * * * * * * * * * * * * * * * * * * * * * * * * * * * * * * * * * * * //

disk
{
  type            rotorDisk;
  active          on;

  rotorDiskCoeffs
  {
    selectionMode   cellZone;
    cellZone        rotatingZone;

    fields          (U);    // Names of fields on which to apply source
    nBlades         2;      // Number of blades
    tipEffect       0.96;   // Normalised radius above which lift = 0
    // I modified the source to enable opposite rotation (as in a coax configuration)
    //  Simply flip sign on rpm to get opposite rotation.
    rpm             9000;
    rhoRef          1.225;
    refVelEta       0.0;   // static thrust kitex
    diameterRef     1.0;   // kitex

    inletFlowType   local;  // Inlet flow type specification

    geometryMode    specified;
    origin          (0 0 0);
    axis            (0 1 0);
    refDirection    (1 0 0);  // Reference direction
                                // - used as reference for psi angle
    trimModel       fixedTrim;  // fixed || targetForce

    fixedTrimCoeffs
    {
      theta0         0;
      theta1c        0;
      theta1s        0;
    }

    flapCoeffs
    {
      beta0           0;  // Coning angle [deg]
      beta1c          0;  // Lateral flapping coeff (cos coeff)
      beta2s          0;  // Longitudinal flapping coeff (sin coeff)
    }
// this is the actual geometry of the blade 
// the fisrt number is the radius from the root
// second number is the twist of the balde
// third number is the chord

    blade
    {
      data
      ( 
//   		       rad[m]  twist[deg]  chord[m]
	    (profile1 (0.0084   45.0000    0.0189 ))
	    (profile1 (0.0167   45.0000    0.0190 ))
	    (profile1 (0.0251   43.9966    0.0194 ))
	    (profile1 (0.0335   35.9113    0.0202 ))
	    (profile1 (0.0419   30.0856    0.0210 ))
	    (profile1 (0.0502   25.7706    0.0216 ))
	    (profile1 (0.0586   22.4806    0.0219 ))
	    (profile1 (0.0670   19.9048    0.0221 ))
	    (profile1 (0.0754   17.8412    0.0219 ))
	    (profile1 (0.0837   16.1548    0.0207 ))
	    (profile1 (0.0921   14.7532    0.0197 ))
	    (profile1 (0.1005   13.5712    0.0183 ))
	    (profile1 (0.1089   12.5617    0.0168 ))
	    (profile1 (0.1172   11.6900    0.0152 ))
	    (profile1 (0.1256   10.9301    0.0000 ))
      );
    }
// this is the airfoil data
// aoa cd cl 
// DATA FOR THE AIRFOIL NACA0022
    profiles
    {
      profile1
      {
        type lookup;
        data
        (
//	 	       AOA[deg]		        CD		   CL
		(-90.00000000000000	2.0311490136000000	-0.9132)
		(-83.79310344827584	2.0077695693100868	-0.9132)
		(-77.58620689655173	1.9387244332709570	-0.9132)
		(-71.37931034482759	1.8272420793056439	-0.9132)
		(-65.17241379310344	1.6785352983818276	-0.9132)
		(-58.96551724137931	1.4995574542997903	-0.9132)
		(-52.75862068965518	1.2986773521292210	-0.9132)
		(-46.55172413793103	1.0852879221854177	-0.9132)
		(-40.3448275862069	0.8693670170472351	-0.9132)
		(-34.13793103448276	0.6610108582600857	-0.9132)
		(-27.93103448275862	0.46996194823761744	-0.9132)
		(-21.724137931034473	0.30515352167686893	-0.9132)
		(-15.517241379310347	0.1742918374324108	-0.9132)
		(-9.310344827586206	0.08349584241719754	-0.9132)
		(-3.1034482758620645	0.020112003690526157	-0.31326279601703483)
		(3.1034482758620645	0.020112003690526157	0.31326279601703483)
		(9.310344827586206	0.08350132221719754	0.9134)
		(15.517241379310347	0.17429731723241082	0.9134)
		(21.724137931034473	0.30515900147686890	0.9134)
		(27.93103448275862	0.46996742803761743	0.9134)
		(34.13793103448276	0.6610163380600856	0.9134)
		(40.34482758620689	0.8693724968472348	0.9134)
		(46.551724137931046	1.0852934019854180	0.9134)
		(52.75862068965518	1.2986828319292210	0.9134)
		(58.965517241379295	1.4995629340997900	0.9134)
		(65.17241379310344	1.6785407781818276	0.9134)
		(71.37931034482759	1.8272475591056438	0.9134)
		(77.58620689655172	1.9387299130709570	0.9134)
		(83.79310344827587	2.0077750491100868	0.9134)

        );
      }
    }
  }
}

// ************************************************************************* //
